# generated using pymatgen
data_B
_symmetry_space_group_name_H-M   'P 1'
_cell_length_a   4.90067000
_cell_length_b   4.90067000
_cell_length_c   5.05098234
_cell_angle_alpha   60.97960221
_cell_angle_beta   60.97963346
_cell_angle_gamma   60.00000000
_symmetry_Int_Tables_number   1
_chemical_formula_structural   B
_chemical_formula_sum   B12
_cell_volume   87.02541100
_cell_formula_units_Z   12
loop_
 _symmetry_equiv_pos_site_id
 _symmetry_equiv_pos_as_xyz
  1  'x, y, z'
loop_
 _atom_site_type_symbol
 _atom_site_label
 _atom_site_symmetry_multiplicity
 _atom_site_fract_x
 _atom_site_fract_y
 _atom_site_fract_z
 _atom_site_occupancy
  B  B0  1  0.01031000  0.65403000  0.32535000  1.0
  B  B1  1  0.98969000  0.34597000  0.67465000  1.0
  B  B2  1  0.65404000  0.01030000  0.32535000  1.0
  B  B3  1  0.34596000  0.98970000  0.67465000  1.0
  B  B4  1  0.01031000  0.01030000  0.32535000  1.0
  B  B5  1  0.98969000  0.98970000  0.67465000  1.0
  B  B6  1  0.22115000  0.63044000  0.92726000  1.0
  B  B7  1  0.77885000  0.36956000  0.07274000  1.0
  B  B8  1  0.63043000  0.22116000  0.92726000  1.0
  B  B9  1  0.36957000  0.77884000  0.07274000  1.0
  B  B10  1  0.22115000  0.22116000  0.92726000  1.0
  B  B11  1  0.77885000  0.77884000  0.07274000  1.0
