# generated using pymatgen
data_Br
_symmetry_space_group_name_H-M   'P 1'
_cell_length_a   4.22731000
_cell_length_b   4.62547316
_cell_length_c   9.03323000
_cell_angle_alpha   90.00000000
_cell_angle_beta   90.00000000
_cell_angle_gamma   117.19109824
_symmetry_Int_Tables_number   1
_chemical_formula_structural   Br
_chemical_formula_sum   Br4
_cell_volume   157.10974396
_cell_formula_units_Z   4
loop_
 _symmetry_equiv_pos_site_id
 _symmetry_equiv_pos_as_xyz
  1  'x, y, z'
loop_
 _atom_site_type_symbol
 _atom_site_label
 _atom_site_symmetry_multiplicity
 _atom_site_fract_x
 _atom_site_fract_y
 _atom_site_fract_z
 _atom_site_occupancy
  Br  Br0  1  0.62426000  0.00000000  0.11716000  1.0
  Br  Br1  1  0.87574000  0.00000000  0.61716000  1.0
  Br  Br2  1  0.12426000  0.00000000  0.38284000  1.0
  Br  Br3  1  0.37574000  0.00000000  0.88284000  1.0
