# generated using pymatgen
data_Cl2
_symmetry_space_group_name_H-M   'P 1'
_cell_length_a   4.34941000
_cell_length_b   4.45607223
_cell_length_c   9.02754000
_cell_angle_alpha   90.00000000
_cell_angle_beta   90.00000000
_cell_angle_gamma   119.21130010
_symmetry_Int_Tables_number   1
_chemical_formula_structural   Cl2
_chemical_formula_sum   Cl4
_cell_volume   152.71425871
_cell_formula_units_Z   2
loop_
 _symmetry_equiv_pos_site_id
 _symmetry_equiv_pos_as_xyz
  1  'x, y, z'
loop_
 _atom_site_type_symbol
 _atom_site_label
 _atom_site_symmetry_multiplicity
 _atom_site_fract_x
 _atom_site_fract_y
 _atom_site_fract_z
 _atom_site_occupancy
  Cl  Cl0  1  0.59118000  0.00000000  0.10152000  1.0
  Cl  Cl1  1  0.90882000  0.00000000  0.60152000  1.0
  Cl  Cl2  1  0.09118000  0.00000000  0.39848000  1.0
  Cl  Cl3  1  0.40882000  0.00000000  0.89848000  1.0
