# generated using pymatgen
data_P
_symmetry_space_group_name_H-M   'P 1'
_cell_length_a   3.30466000
_cell_length_b   4.57327000
_cell_length_c   5.89478390
_cell_angle_alpha   90.00000000
_cell_angle_beta   106.27833397
_cell_angle_gamma   90.00000000
_symmetry_Int_Tables_number   1
_chemical_formula_structural   P
_chemical_formula_sum   P4
_cell_volume   85.51703675
_cell_formula_units_Z   4
loop_
 _symmetry_equiv_pos_site_id
 _symmetry_equiv_pos_as_xyz
  1  'x, y, z'
loop_
 _atom_site_type_symbol
 _atom_site_label
 _atom_site_symmetry_multiplicity
 _atom_site_fract_x
 _atom_site_fract_y
 _atom_site_fract_z
 _atom_site_occupancy
  P  P0  1  0.90643000  0.91281000  0.81286000  1.0
  P  P1  1  0.09357000  0.08719000  0.18714000  1.0
  P  P2  1  0.59357000  0.41281000  0.18714000  1.0
  P  P3  1  0.40643000  0.58719000  0.81286000  1.0
