# generated using pymatgen
data_H2
_symmetry_space_group_name_H-M   'P 1'
_cell_length_a   4.00759000
_cell_length_b   4.00759000
_cell_length_c   5.00307000
_cell_angle_alpha   90.00000000
_cell_angle_beta   90.00000000
_cell_angle_gamma   120.00000000
_symmetry_Int_Tables_number   1
_chemical_formula_structural   H2
_chemical_formula_sum   H4
_cell_volume   69.58790782
_cell_formula_units_Z   2
loop_
 _symmetry_equiv_pos_site_id
 _symmetry_equiv_pos_as_xyz
  1  'x, y, z'
loop_
 _atom_site_type_symbol
 _atom_site_label
 _atom_site_symmetry_multiplicity
 _atom_site_fract_x
 _atom_site_fract_y
 _atom_site_fract_z
 _atom_site_occupancy
  H  H0  1  0.66666667  0.33333333  0.82502000  1.0
  H  H1  1  0.33333333  0.66666667  0.17498000  1.0
  H  H2  1  0.33333333  0.66666667  0.32502000  1.0
  H  H3  1  0.66666667  0.33333333  0.67498000  1.0
