# generated using pymatgen
data_I
_symmetry_space_group_name_H-M   'P 1'
_cell_length_a   4.55422000
_cell_length_b   4.85556434
_cell_length_c   10.18381000
_cell_angle_alpha   90.00000000
_cell_angle_beta   90.00000000
_cell_angle_gamma   117.96740419
_symmetry_Int_Tables_number   1
_chemical_formula_structural   I
_chemical_formula_sum   I4
_cell_volume   198.89790788
_cell_formula_units_Z   4
loop_
 _symmetry_equiv_pos_site_id
 _symmetry_equiv_pos_as_xyz
  1  'x, y, z'
loop_
 _atom_site_type_symbol
 _atom_site_label
 _atom_site_symmetry_multiplicity
 _atom_site_fract_x
 _atom_site_fract_y
 _atom_site_fract_z
 _atom_site_occupancy
  I  I0  1  0.63590000  0.00000000  0.12143000  1.0
  I  I1  1  0.86410000  0.00000000  0.62143000  1.0
  I  I2  1  0.13590000  0.00000000  0.37857000  1.0
  I  I3  1  0.36410000  0.00000000  0.87857000  1.0
